2024_89_CemigReconfigurationCases/1_AlimsCemig/SDEU15/SDEU15CargaBT_Dez.dss
new load.3000040050M1 bus1=RML1052444874.1.0,Phases=1,kv=0.12,kW=0.5256,pf=0.92,Vminpu=0.92,Vmaxpu=1.5,model=1,daily=RES1_1,status=variable
new load.3000040051M1 bus1=RML1052444881.1.2.0,Phases=2,kv=0.24,kW=0.85148,pf=0.92,Vminpu=0.92,Vmaxpu=1.5,model=1,daily=RES1_1,status=variable
new load.3000040052M1 bus1=RML1052444776.1.0,Phases=1,kv=0.12,kW=0.52462,pf=0.92,Vminpu=0.92,Vmaxpu=1.5,model=1,daily=RES2_1,status=variable
new load.3000040053M1 bus1=RML1052444734.1.2.0,Phases=2,kv=0.24,kW=0.7674,pf=0.92,Vminpu=0.92,Vmaxpu=1.5,model=1,daily=RES1_1,status=variable
new load.3000040055M1 bus1=RML1052443957.1.2.0,Phases=2,kv=0.24,kW=0.11644,pf=0.92,Vminpu=0.92,Vmaxpu=1.5,model=1,daily=COM1_3,status=variable
new load.3000040056M1 bus1=RML1052444223.1.0,Phases=1,kv=0.12,kW=0.73586,pf=0.92,Vminpu=0.92,Vmaxpu=1.5,model=1,daily=RES1_1,status=variable
new load.3000040057M1 bus1=RML1052444048.1.0,Phases=1,kv=0.12,kW=0.6172,pf=0.92,Vminpu=0.92,Vmaxpu=1.5,model=1,daily=RES2_1,status=variable
new load.3000040059M1 bus1=RML1052444069.2.0,Phases=1,kv=0.12,kW=0.40998,pf=0.92,Vminpu=0.92,Vmaxpu=1.5,model=1,daily=RES1_1,status=variable
new load.3000040061M1 bus1=RML1052444076.1.0,Phases=1,kv=0.12,kW=0.47524,pf=0.92,Vminpu=0.92,Vmaxpu=1.5,model=1,daily=RES2_1,status=variable
new load.3000040062M1 bus1=RML1052444090.2.0,Phases=1,kv=0.12,kW=0.24178,pf=0.92,Vminpu=0.92,Vmaxpu=1.5,model=1,daily=RES1_1,status=variable
new load.3000040063M1 bus1=RML1052444097.2.0,Phases=1,kv=0.12,kW=0.46254,pf=0.92,Vminpu=0.92,Vmaxpu=1.5,model=1,daily=RES1_1,status=variable
new load.3000040064M1 bus1=RML1052444167.1.0,Phases=1,kv=0.12,kW=0.37844,pf=0.92,Vminpu=0.92,Vmaxpu=1.5,model=1,daily=RES1_1,status=variable
new load.3000040065M1 bus1=RML1052444153.1.0,Phases=1,kv=0.12,kW=0.6938,pf=0.92,Vminpu=0.92,Vmaxpu=1.5,model=1,daily=RES1_1,status=variable
new load.3000040066M1 bus1=RML1052444146.1.0,Phases=1,kv=0.12,kW=0.67892,pf=0.92,Vminpu=0.92,Vmaxpu=1.5,model=1,daily=RES2_1,status=variable
new load.3000040067M1 bus1=RML1052444132.1.0,Phases=1,kv=0.12,kW=0.58868,pf=0.92,Vminpu=0.92,Vmaxpu=1.5,model=1,daily=RES1_1,status=variable
new load.3000040068M1 bus1=RML1052444111.2.0,Phases=1,kv=0.12,kW=0.7779,pf=0.92,Vminpu=0.92,Vmaxpu=1.5,model=1,daily=RES1_1,status=variable
new load.3000040069M1 bus1=RML1052444104.2.0,Phases=1,kv=0.12,kW=0.5493,pf=0.92,Vminpu=0.92,Vmaxpu=1.5,model=1,daily=RES2_1,status=variable
new load.3000040070M1 bus1=RML1052444013.2.0,Phases=1,kv=0.12,kW=0.46254,pf=0.92,Vminpu=0.92,Vmaxpu=1.5,model=1,daily=RES1_1,status=variable
new load.3000040071M1 bus1=RML1052444006.1.0,Phases=1,kv=0.12,kW=0.07358,pf=0.92,Vminpu=0.92,Vmaxpu=1.5,model=1,daily=RES1_1,status=variable
new load.3000040072M1 bus1=RML1052443999.2.0,Phases=1,kv=0.12,kW=0.57818,pf=0.92,Vminpu=0.92,Vmaxpu=1.5,model=1,daily=RES1_1,status=variable
new load.3000040074M1 bus1=RML1052443943.2.0,Phases=1,kv=0.12,kW=0.44152,pf=0.92,Vminpu=0.92,Vmaxpu=1.5,model=1,daily=RES1_1,status=variable
new load.3000040077M1 bus1=RML1052443866.2.0,Phases=1,kv=0.12,kW=0.72212,pf=0.92,Vminpu=0.92,Vmaxpu=1.5,model=1,daily=RES2_1,status=variable
new load.3000040078M1 bus1=RML1052443740.2.0,Phases=1,kv=0.12,kW=0.55714,pf=0.92,Vminpu=0.92,Vmaxpu=1.5,model=1,daily=RES1_1,status=variable
new load.3000040079M1 bus1=RML1052443733.1.0,Phases=1,kv=0.12,kW=0.65176,pf=0.92,Vminpu=0.92,Vmaxpu=1.5,model=1,daily=RES1_1,status=variable
new load.3000040080M1 bus1=RML1052443726.2.0,Phases=1,kv=0.12,kW=0.40118,pf=0.92,Vminpu=0.92,Vmaxpu=1.5,model=1,daily=RES2_1,status=variable
new load.3000040081M1 bus1=RML1052444643.2.0,Phases=1,kv=0.12,kW=0.47304,pf=0.92,Vminpu=0.92,Vmaxpu=1.5,model=1,daily=RES1_1,status=variable
new load.3000040083M1 bus1=RML1052444671.1.2.0,Phases=2,kv=0.24,kW=0.21206,pf=0.92,Vminpu=0.92,Vmaxpu=1.5,model=1,daily=RUR1_1,status=variable
new load.3000040085M1 bus1=RML1052444615.2.0,Phases=1,kv=0.12,kW=0.37844,pf=0.92,Vminpu=0.92,Vmaxpu=1.5,model=1,daily=RES1_1,status=variable
new load.3000040086M1 bus1=RML1052444650.1.0,Phases=1,kv=0.12,kW=0.4629,pf=0.92,Vminpu=0.92,Vmaxpu=1.5,model=1,daily=RES2_1,status=variable
new load.3000040087M1 bus1=RML1052444657.2.0,Phases=1,kv=0.12,kW=0.93558,pf=0.92,Vminpu=0.92,Vmaxpu=1.5,model=1,daily=RES1_1,status=variable
new load.3000040088M1 bus1=RML1052443761.2.0,Phases=1,kv=0.12,kW=0.53612,pf=0.92,Vminpu=0.92,Vmaxpu=1.5,model=1,daily=RES1_1,status=variable
new load.3000040089M1 bus1=RML1052443817.1.0,Phases=1,kv=0.12,kW=0.48758,pf=0.92,Vminpu=0.92,Vmaxpu=1.5,model=1,daily=RES2_1,status=variable
new load.3000040090M1 bus1=RML1052443803.1.2.0,Phases=2,kv=0.24,kW=0.04204,pf=0.92,Vminpu=0.92,Vmaxpu=1.5,model=1,daily=RES1_1,status=variable
new load.3000040091M1 bus1=RML1052443684.1.2.0,Phases=2,kv=0.24,kW=0.45202,pf=0.92,Vminpu=0.92,Vmaxpu=1.5,model=1,daily=RES1_1,status=variable
new load.3000040093M1 bus1=RML1052443698.2.0,Phases=1,kv=0.12,kW=0.74636,pf=0.92,Vminpu=0.92,Vmaxpu=1.5,model=1,daily=RES1_1,status=variable
new load.3000040094M1 bus1=RML1052443705.1.0,Phases=1,kv=0.12,kW=0.91456,pf=0.92,Vminpu=0.92,Vmaxpu=1.5,model=1,daily=RES1_1,status=variable
new load.3000040095M1 bus1=RML1052443712.1.2.0,Phases=2,kv=0.24,kW=1.04922,pf=0.92,Vminpu=0.92,Vmaxpu=1.5,model=1,daily=RES2_1,status=variable
new load.3000040096M1 bus1=RML1052443789.2.0,Phases=1,kv=0.12,kW=0.4629,pf=0.92,Vminpu=0.92,Vmaxpu=1.5,model=1,daily=RES2_1,status=variable
new load.3000040097M1 bus1=RML1052443754.1.0,Phases=1,kv=0.12,kW=0.80944,pf=0.92,Vminpu=0.92,Vmaxpu=1.5,model=1,daily=RES1_1,status=variable
new load.3000040098M1 bus1=RML1052443838.1.2.0,Phases=2,kv=0.24,kW=3.97464,pf=0.92,Vminpu=0.92,Vmaxpu=1.5,model=1,daily=RES4_2,status=variable
new load.3000040099M1 bus1=RML1052443971.1.2.0,Phases=2,kv=0.24,kW=0.44438,pf=0.92,Vminpu=0.92,Vmaxpu=1.5,model=1,daily=RES2_1,status=variable
new load.3000040100M1 bus1=RML1052443845.2.0,Phases=1,kv=0.12,kW=0.47304,pf=0.92,Vminpu=0.92,Vmaxpu=1.5,model=1,daily=RES1_1,status=variable
new load.3000040102M1 bus1=RML1052443859.2.0,Phases=1,kv=0.12,kW=0.49376,pf=0.92,Vminpu=0.92,Vmaxpu=1.5,model=1,daily=RES2_1,status=variable
new load.3000040103M1 bus1=RML1052443978.2.0,Phases=1,kv=0.12,kW=0.16636,pf=0.92,Vminpu=0.92,Vmaxpu=1.5,model=1,daily=COM1_3,status=variable
new load.3000040105M1 bus1=RML1052444573.1.2.0,Phases=2,kv=0.24,kW=0.78384,pf=0.92,Vminpu=0.92,Vmaxpu=1.5,model=1,daily=RES2_1,status=variable
new load.3000040106M1 bus1=RML1052444587.1.0,Phases=1,kv=0.12,kW=0.30486,pf=0.92,Vminpu=0.92,Vmaxpu=1.5,model=1,daily=RES1_1,status=variable
new load.3000040109M1 bus1=RML1052444496.1.2.0,Phases=2,kv=0.24,kW=0.5061,pf=0.92,Vminpu=0.92,Vmaxpu=1.5,model=1,daily=RES2_1,status=variable
new load.3000040111M1 bus1=RML1052444461.2.0,Phases=1,kv=0.12,kW=0.6938,pf=0.92,Vminpu=0.92,Vmaxpu=1.5,model=1,daily=RES1_1,status=variable
new load.3000032906M1 bus1=RML1052081938.1.0,Phases=1,kv=0.127,kW=0.35426,pf=0.92,Vminpu=0.92,Vmaxpu=1.5,model=1,daily=RES3_1,status=variable
new load.3000032908M1 bus1=RML1052081945.3.0,Phases=1,kv=0.127,kW=0.64124,pf=0.92,Vminpu=0.92,Vmaxpu=1.5,model=1,daily=RES1_1,status=variable
new load.3000032909M1 bus1=RML1052081959.3.0,Phases=1,kv=0.127,kW=0.03154,pf=0.92,Vminpu=0.92,Vmaxpu=1.5,model=1,daily=RES1_1,status=variable
new load.3000032910M1 bus1=RML1052081966.1.0,Phases=1,kv=0.127,kW=3.25282,pf=0.92,Vminpu=0.92,Vmaxpu=1.5,model=1,daily=RES3_1,status=variable
new load.3000032911M1 bus1=RML1052081973.3.0,Phases=1,kv=0.127,kW=0.62336,pf=0.92,Vminpu=0.92,Vmaxpu=1.5,model=1,daily=RES2_1,status=variable
new load.3000032912M1 bus1=RML1052081875.1.2.0,Phases=2,kv=0.22,kW=0.71594,pf=0.92,Vminpu=0.92,Vmaxpu=1.5,model=1,daily=RES2_1,status=variable
new load.3000032914M1 bus1=RML1052081805.1.0,Phases=1,kv=0.127,kW=0.56164,pf=0.92,Vminpu=0.92,Vmaxpu=1.5,model=1,daily=RES2_1,status=variable
new load.3000032915M1 bus1=RML1052082099.1.0,Phases=1,kv=0.127,kW=1.86796,pf=0.92,Vminpu=0.92,Vmaxpu=1.5,model=1,daily=RES3_1,status=variable
new load.3000032917M1 bus1=RML1053149067.1.2.0,Phases=2,kv=0.22,kW=0.54664,pf=0.92,Vminpu=0.92,Vmaxpu=1.5,model=1,daily=RES1_1,status=variable
new load.3000032918M1 bus1=RML1052082106.3.0,Phases=1,kv=0.127,kW=0.86406,pf=0.92,Vminpu=0.92,Vmaxpu=1.5,model=1,daily=RES2_1,status=variable
new load.3000032919M1 bus1=RML1052081777.1.0,Phases=1,kv=0.127,kW=0.01234,pf=0.92,Vminpu=0.92,Vmaxpu=1.5,model=1,daily=RES2_1,status=variable
new load.3000032920M1 bus1=RML1052081441.1.0,Phases=1,kv=0.12,kW=0.30486,pf=0.92,Vminpu=0.92,Vmaxpu=1.5,model=1,daily=RES1_1,status=variable
new load.3000032921M1 bus1=RML1052081469.1.0,Phases=1,kv=0.12,kW=0.02102,pf=0.92,Vminpu=0.92,Vmaxpu=1.5,model=1,daily=RES1_1,status=variable
new load.3000032922M1 bus1=RML1052081385.2.0,Phases=1,kv=0.12,kW=0.75688,pf=0.92,Vminpu=0.92,Vmaxpu=1.5,model=1,daily=RES1_1,status=variable
new load.3000032923M1 bus1=RML1052081350.2.0,Phases=1,kv=0.12,kW=0.40998,pf=0.92,Vminpu=0.92,Vmaxpu=1.5,model=1,daily=RES1_1,status=variable
new load.3000032924M1 bus1=RML1052081462.2.0,Phases=1,kv=0.12,kW=1.09242,pf=0.92,Vminpu=0.92,Vmaxpu=1.5,model=1,daily=RES2_1,status=variable
new load.3000032925M1 bus1=RML1052081455.2.0,Phases=1,kv=0.12,kW=0.11726,pf=0.92,Vminpu=0.92,Vmaxpu=1.5,model=1,daily=RES2_1,status=variable
new load.3000032927M1 bus1=RML1052081364.2.0,Phases=1,kv=0.12,kW=0.7036,pf=0.92,Vminpu=0.92,Vmaxpu=1.5,model=1,daily=RES2_1,status=variable
new load.3000032928M1 bus1=RML1052081406.2.0,Phases=1,kv=0.12,kW=0.8147,pf=0.92,Vminpu=0.92,Vmaxpu=1.5,model=1,daily=RES2_1,status=variable
new load.3000032929M1 bus1=RML1052081476.1.0,Phases=1,kv=0.12,kW=0.67892,pf=0.92,Vminpu=0.92,Vmaxpu=1.5,model=1,daily=RES2_1,status=variable
new load.3000032930M1 bus1=RML1052081343.1.0,Phases=1,kv=0.12,kW=0.74636,pf=0.92,Vminpu=0.92,Vmaxpu=1.5,model=1,daily=RES1_1,status=variable
new load.3000032931M1 bus1=RML1052081336.2.0,Phases=1,kv=0.12,kW=0.80944,pf=0.92,Vminpu=0.92,Vmaxpu=1.5,model=1,daily=RES1_1,status=variable
new load.3000032932M1 bus1=RML1052081322.1.0,Phases=1,kv=0.12,kW=0.79892,pf=0.92,Vminpu=0.92,Vmaxpu=1.5,model=1,daily=RES1_1,status=variable
new load.3000032935M1 bus1=RML1052082008.2.0,Phases=1,kv=0.127,kW=0.93814,pf=0.92,Vminpu=0.92,Vmaxpu=1.5,model=1,daily=RES2_1,status=variable
new load.3000032936M1 bus1=RML1052082022.1.0,Phases=1,kv=0.127,kW=0.79892,pf=0.92,Vminpu=0.92,Vmaxpu=1.5,model=1,daily=RES1_1,status=variable
new load.3000032937M1 bus1=RML1052082036.1.0,Phases=1,kv=0.127,kW=0.46254,pf=0.92,Vminpu=0.92,Vmaxpu=1.5,model=1,daily=RES1_1,status=variable
new load.3000032938M1 bus1=RML1052082043.1.0,Phases=1,kv=0.127,kW=0.00222,pf=0.92,Vminpu=0.92,Vmaxpu=1.5,model=1,daily=COM1_2,status=variable
new load.3000032939M1 bus1=RML1052082029.3.0,Phases=1,kv=0.127,kW=0.64188,pf=0.92,Vminpu=0.92,Vmaxpu=1.5,model=1,daily=RES2_1,status=variable
new load.3000032940M1 bus1=RML1052081749.1.0,Phases=1,kv=0.127,kW=0.90404,pf=0.92,Vminpu=0.92,Vmaxpu=1.5,model=1,daily=RES1_1,status=variable
new load.3000032942M1 bus1=RML1052082561.3.0,Phases=1,kv=0.127,kW=0.75688,pf=0.92,Vminpu=0.92,Vmaxpu=1.5,model=1,daily=RES1_1,status=variable
new load.3000032944M1 bus1=RML1052081301.2.0,Phases=1,kv=0.12,kW=0.67278,pf=0.92,Vminpu=0.92,Vmaxpu=1.5,model=1,daily=RES1_1,status=variable
new load.3000032945M1 bus1=RML1052814005.2.0,Phases=1,kv=0.12,kW=0.29434,pf=0.92,Vminpu=0.92,Vmaxpu=1.5,model=1,daily=RES1_1,status=variable
new load.3000032947M1 bus1=RML1052081371.1.0,Phases=1,kv=0.12,kW=0.59868,pf=0.92,Vminpu=0.92,Vmaxpu=1.5,model=1,daily=RES2_1,status=variable
new load.3000032948M1 bus1=RML1052081770.1.0,Phases=1,kv=0.127,kW=0.40998,pf=0.92,Vminpu=0.92,Vmaxpu=1.5,model=1,daily=RES1_1,status=variable
new load.3000032949M1 bus1=RML1052081406.2.0,Phases=1,kv=0.12,kW=0.01052,pf=0.92,Vminpu=0.92,Vmaxpu=1.5,model=1,daily=RES1_1,status=variable
new load.3000032951M1 bus1=RML1052081756.3.0,Phases=1,kv=0.127,kW=0.32588,pf=0.92,Vminpu=0.92,Vmaxpu=1.5,model=1,daily=RES1_1,status=variable
new load.3000032952M1 bus1=RML1052081763.2.0,Phases=1,kv=0.127,kW=0.6833,pf=0.92,Vminpu=0.92,Vmaxpu=1.5,model=1,daily=RES1_1,status=variable
new load.3000032954M1 bus1=RML1052081357.1.0,Phases=1,kv=0.12,kW=0.53696,pf=0.92,Vminpu=0.92,Vmaxpu=1.5,model=1,daily=RES2_1,status=variable
new load.3000032955M1 bus1=RML1052081560.2.0,Phases=1,kv=0.127,kW=0.99984,pf=0.92,Vminpu=0.92,Vmaxpu=1.5,model=1,daily=RES2_1,status=variable
new load.3000032956M1 bus1=RML1052081588.1.0,Phases=1,kv=0.127,kW=0.23126,pf=0.92,Vminpu=0.92,Vmaxpu=1.5,model=1,daily=RES1_1,status=variable
new load.3000032957M1 bus1=RML1052081532.3.0,Phases=1,kv=0.127,kW=0.27156,pf=0.92,Vminpu=0.92,Vmaxpu=1.5,model=1,daily=RES2_1,status=variable
new load.3000032958M1 bus1=RML1052082554.1.0,Phases=1,kv=0.127,kW=0.45054,pf=0.92,Vminpu=0.92,Vmaxpu=1.5,model=1,daily=RES2_1,status=variable
new load.3000032959M1 bus1=RML1052081525.2.0,Phases=1,kv=0.127,kW=0.4382,pf=0.92,Vminpu=0.92,Vmaxpu=1.5,model=1,daily=RES2_1,status=variable
new load.3000032960M1 bus1=RML1052081616.2.0,Phases=1,kv=0.127,kW=0.70976,pf=0.92,Vminpu=0.92,Vmaxpu=1.5,model=1,daily=RES2_1,status=variable
new load.3000032961M1 bus1=RML1052081539.1.0,Phases=1,kv=0.127,kW=3.60708,pf=0.92,Vminpu=0.92,Vmaxpu=1.5,model=1,daily=RES3_1,status=variable
new load.3000032962M1 bus1=RML1052081791.2.0,Phases=1,kv=0.127,kW=0.57818,pf=0.92,Vminpu=0.92,Vmaxpu=1.5,model=1,daily=RES1_1,status=variable
new load.3000032964M1 bus1=RML1052081672.3.0,Phases=1,kv=0.127,kW=0.03154,pf=0.92,Vminpu=0.92,Vmaxpu=1.5,model=1,daily=RES1_1,status=variable
new load.3000032965M1 bus1=RML1052081665.2.0,Phases=1,kv=0.127,kW=0.48758,pf=0.92,Vminpu=0.92,Vmaxpu=1.5,model=1,daily=RES2_1,status=variable
new load.3000032966M1 bus1=RML1052082575.2.0,Phases=1,kv=0.127,kW=0.30486,pf=0.92,Vminpu=0.92,Vmaxpu=1.5,model=1,daily=RES1_1,status=variable
new load.3000032967M1 bus1=RML1052082589.2.0,Phases=1,kv=0.127,kW=0.22076,pf=0.92,Vminpu=0.92,Vmaxpu=1.5,model=1,daily=RES1_1,status=variable
new load.3000032968M1 bus1=RML1052082498.3.0,Phases=1,kv=0.127,kW=0.21024,pf=0.92,Vminpu=0.92,Vmaxpu=1.5,model=1,daily=RES1_1,status=variable
new load.3000032970M1 bus1=RML1052082533.1.2.3.0,Phases=3,kv=0.22,kW=0.42958,pf=0.92,Vminpu=0.92,Vmaxpu=1.5,model=1,daily=COM1_2,status=variable
new load.3000032972M1 bus1=RML1052082526.1.2.0,Phases=2,kv=0.22,kW=0.3233,pf=0.92,Vminpu=0.92,Vmaxpu=1.5,model=1,daily=COM1_2,status=variable
new load.3000032974M1 bus1=RML1052082414.3.0,Phases=1,kv=0.127,kW=0.56782,pf=0.92,Vminpu=0.92,Vmaxpu=1.5,model=1,daily=RES2_1,status=variable
new load.3000032975M1 bus1=RML1052082407.2.0,Phases=1,kv=0.127,kW=0.73446,pf=0.92,Vminpu=0.92,Vmaxpu=1.5,model=1,daily=RES2_1,status=variable
new load.3000032977M1 bus1=RML1052082295.2.0,Phases=1,kv=0.127,kW=3.7681,pf=0.92,Vminpu=0.92,Vmaxpu=1.5,model=1,daily=RES3_1,status=variable
new load.3000032978M1 bus1=RML1052082330.2.0,Phases=1,kv=0.127,kW=1.01836,pf=0.92,Vminpu=0.92,Vmaxpu=1.5,model=1,daily=RES2_1,status=variable
new load.3000032979M1 bus1=RML1052082463.1.3.0,Phases=2,kv=0.22,kW=1.01836,pf=0.92,Vminpu=0.92,Vmaxpu=1.5,model=1,daily=RES2_1,status=variable
new load.3000032980M1 bus1=RML1052082344.3.0,Phases=1,kv=0.127,kW=0.6833,pf=0.92,Vminpu=0.92,Vmaxpu=1.5,model=1,daily=RES1_1,status=variable
new load.3000032982M1 bus1=RML1052082365.2.0,Phases=1,kv=0.127,kW=0.58868,pf=0.92,Vminpu=0.92,Vmaxpu=1.5,model=1,daily=RES1_1,status=variable
new load.3000032983M1 bus1=RML1052082323.1.0,Phases=1,kv=0.127,kW=0.07358,pf=0.92,Vminpu=0.92,Vmaxpu=1.5,model=1,daily=RES1_1,status=variable
new load.3000032984M1 bus1=RML1052082302.1.0,Phases=1,kv=0.127,kW=3.63928,pf=0.92,Vminpu=0.92,Vmaxpu=1.5,model=1,daily=RES3_1,status=variable
new load.3000032985M1 bus1=RML1052082309.3.0,Phases=1,kv=0.127,kW=0.51226,pf=0.92,Vminpu=0.92,Vmaxpu=1.5,model=1,daily=RES2_1,status=variable
new load.3000032986M1 bus1=RML1060455526.1.2.0,Phases=2,kv=0.22,kW=0.51226,pf=0.92,Vminpu=0.92,Vmaxpu=1.5,model=1,daily=RES2_1,status=variable
new load.3000032987M1 bus1=RML1052082379.1.0,Phases=1,kv=0.127,kW=0.21024,pf=0.92,Vminpu=0.92,Vmaxpu=1.5,model=1,daily=RES1_1,status=variable
new load.3000032988M1 bus1=RML1052082260.1.0,Phases=1,kv=0.127,kW=0.03154,pf=0.92,Vminpu=0.92,Vmaxpu=1.5,model=1,daily=RES1_1,status=variable
new load.3000032989M1 bus1=RML1052082274.1.0,Phases=1,kv=0.127,kW=0.69126,pf=0.92,Vminpu=0.92,Vmaxpu=1.5,model=1,daily=RES2_1,status=variable
new load.3000032991M1 bus1=RML1052082470.3.0,Phases=1,kv=0.127,kW=0.67274,pf=0.92,Vminpu=0.92,Vmaxpu=1.5,model=1,daily=RES2_1,status=variable
new load.3000032992M1 bus1=RML1052082071.1.2.0,Phases=2,kv=0.22,kW=0.64806,pf=0.92,Vminpu=0.92,Vmaxpu=1.5,model=1,daily=RES2_1,status=variable
new load.3000032994M1 bus1=RML1052082078.1.0,Phases=1,kv=0.127,kW=0.91456,pf=0.92,Vminpu=0.92,Vmaxpu=1.5,model=1,daily=RES1_1,status=variable
new load.3000032995M1 bus1=RML1052081994.2.3.0,Phases=2,kv=0.22,kW=0.01052,pf=0.92,Vminpu=0.92,Vmaxpu=1.5,model=1,daily=RES1_1,status=variable
new load.3000032997M1 bus1=RML1052082001.2.0,Phases=1,kv=0.127,kW=0.01052,pf=0.92,Vminpu=0.92,Vmaxpu=1.5,model=1,daily=RES1_1,status=variable
new load.3000032998M1 bus1=RML1052082050.1.2.0,Phases=2,kv=0.22,kW=0.55802,pf=0.92,Vminpu=0.92,Vmaxpu=1.5,model=1,daily=COM1_2,status=variable
new load.3000032999M1 bus1=RML1052081882.2.0,Phases=1,kv=0.127,kW=0.5925,pf=0.92,Vminpu=0.92,Vmaxpu=1.5,model=1,daily=RES2_1,status=variable
new load.3000033000M1 bus1=RML1052081952.1.0,Phases=1,kv=0.127,kW=0.1682,pf=0.92,Vminpu=0.92,Vmaxpu=1.5,model=1,daily=RES1_1,status=variable
new load.3000033001M1 bus1=RML1052081889.3.0,Phases=1,kv=0.127,kW=2.25442,pf=0.92,Vminpu=0.92,Vmaxpu=1.5,model=1,daily=RES3_1,status=variable
new load.3000033002M1 bus1=RML1052081910.2.0,Phases=1,kv=0.127,kW=0.69126,pf=0.92,Vminpu=0.92,Vmaxpu=1.5,model=1,daily=RES2_1,status=variable
new load.3000033003M1 bus1=RML1052081917.2.0,Phases=1,kv=0.127,kW=2.38324,pf=0.92,Vminpu=0.92,Vmaxpu=1.5,model=1,daily=RES3_1,status=variable
new load.3000033004M1 bus1=RML1052081924.3.0,Phases=1,kv=0.127,kW=0.8579,pf=0.92,Vminpu=0.92,Vmaxpu=1.5,model=1,daily=RES2_1,status=variable
new load.3000033007M1 bus1=RML1052081903.1.0,Phases=1,kv=0.127,kW=1.24056,pf=0.92,Vminpu=0.92,Vmaxpu=1.5,model=1,daily=RES2_1,status=variable
new load.3000033008M1 bus1=RML1052081896.1.0,Phases=1,kv=0.127,kW=2.73752,pf=0.92,Vminpu=0.92,Vmaxpu=1.5,model=1,daily=RES3_1,status=variable
new load.3000033009M1 bus1=RML1052224486.3.0,Phases=1,kv=0.127,kW=0.8332,pf=0.92,Vminpu=0.92,Vmaxpu=1.5,model=1,daily=RES2_1,status=variable
new load.3000033010M1 bus1=RML1052224493.2.0,Phases=1,kv=0.127,kW=0.50926,pf=0.92,Vminpu=0.92,Vmaxpu=1.5,model=1,daily=RES4_2,status=variable
new load.3000033011M1 bus1=RML1052224500.3.0,Phases=1,kv=0.127,kW=0.74062,pf=0.92,Vminpu=0.92,Vmaxpu=1.5,model=1,daily=RES2_1,status=variable
new load.3000033013M1 bus1=RML1052224521.2.0,Phases=1,kv=0.127,kW=0.0432,pf=0.92,Vminpu=0.92,Vmaxpu=1.5,model=1,daily=RES2_1,status=variable
new load.3000033016M1 bus1=RML1052224794.1.0,Phases=1,kv=0.127,kW=0.7036,pf=0.92,Vminpu=0.92,Vmaxpu=1.5,model=1,daily=RES2_1,status=variable
new load.3000033017M1 bus1=RML1052224801.2.3.0,Phases=2,kv=0.22,kW=4.46054,pf=0.92,Vminpu=0.92,Vmaxpu=1.5,model=1,daily=RES3_1,status=variable
new load.3000033018M1 bus1=RML1052224822.3.0,Phases=1,kv=0.127,kW=0.69126,pf=0.92,Vminpu=0.92,Vmaxpu=1.5,model=1,daily=RES2_1,status=variable
new load.3000033019M1 bus1=RML1052224815.3.0,Phases=1,kv=0.127,kW=0.34562,pf=0.92,Vminpu=0.92,Vmaxpu=1.5,model=1,daily=RES2_1,status=variable
new load.3000033020M1 bus1=RML1052224808.1.2.3.0,Phases=3,kv=0.22,kW=0.16046,pf=0.92,Vminpu=0.92,Vmaxpu=1.5,model=1,daily=RES2_1,status=variable
new load.3000033021M1 bus1=RML1052224654.1.0,Phases=1,kv=0.127,kW=0.29434,pf=0.92,Vminpu=0.92,Vmaxpu=1.5,model=1,daily=RES1_1,status=variable
new load.3000033023M1 bus1=RML1052224913.1.2.3.0,Phases=3,kv=0.22,kW=0.79892,pf=0.92,Vminpu=0.92,Vmaxpu=1.5,model=1,daily=RES1_1,status=variable
new load.3000033024M1 bus1=RML1052224920.2.0,Phases=1,kv=0.127,kW=0.01052,pf=0.92,Vminpu=0.92,Vmaxpu=1.5,model=1,daily=RES1_1,status=variable
new load.3000033025M1 bus1=RML1052224934.3.0,Phases=1,kv=0.127,kW=0.8579,pf=0.92,Vminpu=0.92,Vmaxpu=1.5,model=1,daily=RES2_1,status=variable
new load.3000033027M1 bus1=RML1052224948.2.0,Phases=1,kv=0.127,kW=0.53612,pf=0.92,Vminpu=0.92,Vmaxpu=1.5,model=1,daily=RES1_1,status=variable
new load.3000033029M1 bus1=RML1052224906.1.0,Phases=1,kv=0.127,kW=0.06172,pf=0.92,Vminpu=0.92,Vmaxpu=1.5,model=1,daily=RES2_1,status=variable
new load.3000033031M1 bus1=RML1052224773.3.0,Phases=1,kv=0.127,kW=0.66656,pf=0.92,Vminpu=0.92,Vmaxpu=1.5,model=1,daily=RES2_1,status=variable
new load.3000033034M1 bus1=RML1052224689.1.0,Phases=1,kv=0.127,kW=0.00618,pf=0.92,Vminpu=0.92,Vmaxpu=1.5,model=1,daily=RES2_1,status=variable
new load.3000033035M1 bus1=RML1052224696.1.0,Phases=1,kv=0.127,kW=0.22076,pf=0.92,Vminpu=0.92,Vmaxpu=1.5,model=1,daily=RES1_1,status=variable
new load.3000033036M1 bus1=RML1052224703.3.0,Phases=1,kv=0.127,kW=0.43204,pf=0.92,Vminpu=0.92,Vmaxpu=1.5,model=1,daily=RES2_1,status=variable
new load.3000033039M1 bus1=RML1052224766.3.0,Phases=1,kv=0.127,kW=0.67892,pf=0.92,Vminpu=0.92,Vmaxpu=1.5,model=1,daily=RES2_1,status=variable
new load.3000033040M1 bus1=RML1052224626.2.0,Phases=1,kv=0.127,kW=0.71482,pf=0.92,Vminpu=0.92,Vmaxpu=1.5,model=1,daily=RES1_1,status=variable
new load.3000033042M1 bus1=RML1052224829.2.3.0,Phases=2,kv=0.22,kW=0.093,pf=0.92,Vminpu=0.92,Vmaxpu=1.5,model=1,daily=COM1_2,status=variable
new load.3000033043M1 bus1=RML1052224724.3.0,Phases=1,kv=0.127,kW=0.01052,pf=0.92,Vminpu=0.92,Vmaxpu=1.5,model=1,daily=RES1_1,status=variable
new load.3000033044M1 bus1=RML1052224731.1.2.3.0,Phases=3,kv=0.22,kW=4.2995,pf=0.92,Vminpu=0.92,Vmaxpu=1.5,model=1,daily=RES3_1,status=variable
new load.3000033045M1 bus1=RML1052224738.2.0,Phases=1,kv=0.127,kW=0.01052,pf=0.92,Vminpu=0.92,Vmaxpu=1.5,model=1,daily=RES1_1,status=variable
new load.3000033046M1 bus1=RML1052224864.1.0,Phases=1,kv=0.127,kW=0.431,pf=0.92,Vminpu=0.92,Vmaxpu=1.5,model=1,daily=RES1_1,status=variable
new load.3000033048M1 bus1=RML1052224857.2.0,Phases=1,kv=0.127,kW=0.05256,pf=0.92,Vminpu=0.92,Vmaxpu=1.5,model=1,daily=RES1_1,status=variable
new load.3000033050M1 bus1=RML1052224514.1.0,Phases=1,kv=0.127,kW=0.84556,pf=0.92,Vminpu=0.92,Vmaxpu=1.5,model=1,daily=RES2_1,status=variable
new load.3000391653M1 bus1=RML1052453659.2.0,Phases=1,kv=0.12,kW=0.71934,pf=0.92,Vminpu=0.92,Vmaxpu=1.5,model=1,daily=RES2_6,status=variable
new load.3000391654M1 bus1=RML1052453652.1.2.0,Phases=2,kv=0.24,kW=0.61926,pf=0.92,Vminpu=0.92,Vmaxpu=1.5,model=1,daily=RES2_6,status=variable
new load.3000391655M1 bus1=RML1052453638.1.2.0,Phases=2,kv=0.24,kW=0.80066,pf=0.92,Vminpu=0.92,Vmaxpu=1.5,model=1,daily=RES2_6,status=variable
new load.3000391657M1 bus1=RML1052453617.2.0,Phases=1,kv=0.12,kW=0.74436,pf=0.92,Vminpu=0.92,Vmaxpu=1.5,model=1,daily=RES2_6,status=variable
new load.3000391661M1 bus1=RML1052453792.2.0,Phases=1,kv=0.12,kW=0.14694,pf=0.92,Vminpu=0.92,Vmaxpu=1.5,model=1,daily=RES1_5,status=variable
new load.3000391662M1 bus1=RML1052453806.2.0,Phases=1,kv=0.12,kW=0.01836,pf=0.92,Vminpu=0.92,Vmaxpu=1.5,model=1,daily=RES1_5,status=variable
new load.3000391663M1 bus1=RML1052453799.1.2.0,Phases=2,kv=0.24,kW=0.82658,pf=0.92,Vminpu=0.92,Vmaxpu=1.5,model=1,daily=RES1_5,status=variable
new load.3000391664M1 bus1=RML1052453792.2.0,Phases=1,kv=0.12,kW=0.9368,pf=0.92,Vminpu=0.92,Vmaxpu=1.5,model=1,daily=RES1_5,status=variable
new load.3000391666M1 bus1=RML1052453764.1.2.0,Phases=2,kv=0.24,kW=1.396,pf=0.92,Vminpu=0.92,Vmaxpu=1.5,model=1,daily=RES1_5,status=variable
new load.3000391667M1 bus1=RML1052453785.1.0,Phases=1,kv=0.12,kW=0.78816,pf=0.92,Vminpu=0.92,Vmaxpu=1.5,model=1,daily=RES2_6,status=variable
new load.3000391668M1 bus1=RML1052453743.1.2.0,Phases=2,kv=0.24,kW=0.55672,pf=0.92,Vminpu=0.92,Vmaxpu=1.5,model=1,daily=RES2_6,status=variable
new load.3000391669M1 bus1=RML1052453736.2.0,Phases=1,kv=0.12,kW=1.22602,pf=0.92,Vminpu=0.92,Vmaxpu=1.5,model=1,daily=RES2_6,status=variable
new load.3000391670M1 bus1=RML1052453729.2.0,Phases=1,kv=0.12,kW=1.26356,pf=0.92,Vminpu=0.92,Vmaxpu=1.5,model=1,daily=RES2_6,status=variable
new load.3000391673M1 bus1=RML1052453827.2.0,Phases=1,kv=0.12,kW=0.67556,pf=0.92,Vminpu=0.92,Vmaxpu=1.5,model=1,daily=RES2_6,status=variable
new load.3000391674M1 bus1=RML1052453841.1.0,Phases=1,kv=0.12,kW=0.7531,pf=0.92,Vminpu=0.92,Vmaxpu=1.5,model=1,daily=RES1_5,status=variable
new load.3000391676M1 bus1=RML1052453855.2.0,Phases=1,kv=0.12,kW=0.68182,pf=0.92,Vminpu=0.92,Vmaxpu=1.5,model=1,daily=RES2_6,status=variable
new load.3000391679M1 bus1=RML1052453442.1.0,Phases=1,kv=0.12,kW=0.31226,pf=0.92,Vminpu=0.92,Vmaxpu=1.5,model=1,daily=RES1_5,status=variable
new load.3000391681M1 bus1=RML1052453414.2.0,Phases=1,kv=0.12,kW=0.35654,pf=0.92,Vminpu=0.92,Vmaxpu=1.5,model=1,daily=RES2_6,status=variable
new load.3000391682M1 bus1=RML1052453421.2.0,Phases=1,kv=0.12,kW=1.35926,pf=0.92,Vminpu=0.92,Vmaxpu=1.5,model=1,daily=RES1_5,status=variable
new load.3000391684M1 bus1=RML1052453470.2.0,Phases=1,kv=0.12,kW=0.9368,pf=0.92,Vminpu=0.92,Vmaxpu=1.5,model=1,daily=RES1_5,status=variable
new load.3000391686M1 bus1=RML1052453477.1.2.0,Phases=2,kv=0.24,kW=1.02864,pf=0.92,Vminpu=0.92,Vmaxpu=1.5,model=1,daily=RES1_5,status=variable
new load.3000391687M1 bus1=RML1052453470.2.0,Phases=1,kv=0.12,kW=1.65316,pf=0.92,Vminpu=0.92,Vmaxpu=1.5,model=1,daily=RES1_5,status=variable
new load.3000391688M1 bus1=RML1052453407.2.0,Phases=1,kv=0.12,kW=1.12048,pf=0.92,Vminpu=0.92,Vmaxpu=1.5,model=1,daily=RES1_5,status=variable
new load.3000391689M1 bus1=RML1052453400.2.0,Phases=1,kv=0.12,kW=0.69432,pf=0.92,Vminpu=0.92,Vmaxpu=1.5,model=1,daily=RES2_6,status=variable
new load.3000391690M1 bus1=RML1052453393.1.0,Phases=1,kv=0.12,kW=0.62552,pf=0.92,Vminpu=0.92,Vmaxpu=1.5,model=1,daily=RES2_6,status=variable
new load.3000391691M1 bus1=RML1052453386.2.0,Phases=1,kv=0.12,kW=0.4879,pf=0.92,Vminpu=0.92,Vmaxpu=1.5,model=1,daily=RES2_6,status=variable
new load.3000391692M1 bus1=RML1052453379.1.0,Phases=1,kv=0.12,kW=0.9368,pf=0.92,Vminpu=0.92,Vmaxpu=1.5,model=1,daily=RES1_5,status=variable
new load.3000391693M1 bus1=RML1052453372.1.2.0,Phases=2,kv=0.24,kW=0.90006,pf=0.92,Vminpu=0.92,Vmaxpu=1.5,model=1,daily=RES1_5,status=variable
new load.3000391694M1 bus1=RML1052453365.2.0,Phases=1,kv=0.12,kW=0.01836,pf=0.92,Vminpu=0.92,Vmaxpu=1.5,model=1,daily=RES1_5,status=variable
new load.3000391698M1 bus1=RML1052453596.2.0,Phases=1,kv=0.12,kW=1.43274,pf=0.92,Vminpu=0.92,Vmaxpu=1.5,model=1,daily=RES1_5,status=variable
new load.3000391701M1 bus1=RML1052453589.1.0,Phases=1,kv=0.12,kW=1.19396,pf=0.92,Vminpu=0.92,Vmaxpu=1.5,model=1,daily=RES1_5,status=variable
new load.3000391702M1 bus1=RML1052453582.2.0,Phases=1,kv=0.12,kW=0.97352,pf=0.92,Vminpu=0.92,Vmaxpu=1.5,model=1,daily=RES1_5,status=variable
new load.3000391703M1 bus1=RML1052453575.2.0,Phases=1,kv=0.12,kW=1.15722,pf=0.92,Vminpu=0.92,Vmaxpu=1.5,model=1,daily=RES1_5,status=variable
new load.3000391704M1 bus1=RML1052453568.1.2.0,Phases=2,kv=0.24,kW=1.26742,pf=0.92,Vminpu=0.92,Vmaxpu=1.5,model=1,daily=RES1_5,status=variable
new load.3000569732M1 bus1=RML1052449004.1.0,Phases=1,kv=0.12,kW=0.45676,pf=0.92,Vminpu=0.92,Vmaxpu=1.5,model=1,daily=RES1_9,status=variable
new load.3000569733M1 bus1=RML1052448962.1.0,Phases=1,kv=0.12,kW=0.04684,pf=0.92,Vminpu=0.92,Vmaxpu=1.5,model=1,daily=COM1_14,status=variable
new load.3000569734M1 bus1=RML1052449011.1.2.0,Phases=2,kv=0.24,kW=0.03962,pf=0.92,Vminpu=0.92,Vmaxpu=1.5,model=1,daily=COM1_14,status=variable
new load.3000569735M1 bus1=RML1052448997.1.0,Phases=1,kv=0.12,kW=0.01442,pf=0.92,Vminpu=0.92,Vmaxpu=1.5,model=1,daily=COM1_14,status=variable
new load.3000569736M1 bus1=RML1052448990.2.0,Phases=1,kv=0.12,kW=0.7262,pf=0.92,Vminpu=0.92,Vmaxpu=1.5,model=1,daily=RES2_10,status=variable
new load.3000569737M1 bus1=RML1052448983.1.0,Phases=1,kv=0.12,kW=1.81626,pf=0.92,Vminpu=0.92,Vmaxpu=1.5,model=1,daily=RES5_11,status=variable
new load.3000569738M1 bus1=RML1052448976.2.0,Phases=1,kv=0.12,kW=0.79282,pf=0.92,Vminpu=0.92,Vmaxpu=1.5,model=1,daily=RES2_10,status=variable
new load.3000569740M1 bus1=RML1052448766.1.0,Phases=1,kv=0.12,kW=0.40602,pf=0.92,Vminpu=0.92,Vmaxpu=1.5,model=1,daily=RES1_9,status=variable
new load.3000569741M1 bus1=RML1052448773.2.0,Phases=1,kv=0.12,kW=0.29436,pf=0.92,Vminpu=0.92,Vmaxpu=1.5,model=1,daily=RES1_9,status=variable
...
